/*--------------------------------*- C++ -*----------------------------------*\
| =========                 |                                                 |
| \\      /  F ield         | OpenFOAM: The Open Source CFD Toolbox           |
|  \\    /   O peration     | Version:  2.1.0                                 |
|   \\  /    A nd           | Web:      www.OpenFOAM.org                      |
|    \\/     M anipulation  |                                                 |
\*---------------------------------------------------------------------------*/
FoamFile
{
    version     2.0;
    format      ascii;
    class       dictionary;
    object      fvSolution;
}
// * * * * * * * * * * * * * * * * * * * * * * * * * * * * * * * * * * * * * //

solvers
{
    p
    {
        solver           GAMG;
        tolerance        1e-7;
        relTol           0.001;
        minIter          5;
        maxIter          100;
        smoother         GaussSeidel;
        nPreSweeps       1;
        nPostSweeps      3;
        nFinestSweeps    3;
        scaleCorrection true; 
        directSolveCoarsest false;
        cacheAgglomeration on;
        nCellsInCoarsestLevel 50;
        agglomerator     faceAreaPair;
        mergeLevels      1;
    }

    U
    {
        solver           smoothSolver;
        smoother         GaussSeidel;
        tolerance        1e-8;
        relTol           0.01;
        nSweeps          1;
    }

    k
    {
        solver           smoothSolver;
        smoother         GaussSeidel;
        tolerance        1e-8;
        relTol           0.01;
        nSweeps          1;
    }

    omega
    {
        solver           smoothSolver;
        smoother         GaussSeidel;
        tolerance        1e-8;
        relTol           0.01;
        nSweeps          1;
    }
}

SIMPLE
{
    nNonOrthogonalCorrectors 0;
    
    pRefCell        0;
    pRefValue       0;

    residualControl
    {
        p               1e-5;
        U               1e-5;
        "(k|omega)"     1e-5;
    }
}

relaxationFactors
{
    fields
    {
        p               0.3;
    }
    equations
    {
        "(U|k|omega)"   0.7;
        "(U|k|omega)Final" 0.7;
    }
}

cache
{
    grad(U);
}

// ************************************************************************* //
